*SPEF "ieee 1481-1999"
*DESIGN "TOP_digital"
*DATE "11:11:11 Fri 11 11, 1111"
*VENDOR "OpenRCX"
*PROGRAM "Parallel Extraction"
*VERSION "1.0"
*DESIGN_FLOW "NAME_SCOPE LOCAL" "PIN_CAP NONE"
*DIVIDER /
*DELIMITER :
*BUS_DELIMITER []
*T_UNIT 1 NS
*C_UNIT 1 PF
*R_UNIT 1 OHM
*L_UNIT 1 HENRY

*NAME_MAP
*1 analog_io[0]
*2 analog_io[10]
*3 analog_io[11]
*4 analog_io[12]
*5 analog_io[13]
*6 analog_io[14]
*7 analog_io[15]
*8 analog_io[16]
*9 analog_io[17]
*10 analog_io[18]
*11 analog_io[19]
*12 analog_io[1]
*13 analog_io[20]
*14 analog_io[21]
*15 analog_io[22]
*16 analog_io[23]
*17 analog_io[24]
*18 analog_io[25]
*19 analog_io[26]
*20 analog_io[27]
*21 analog_io[28]
*22 analog_io[2]
*23 analog_io[3]
*24 analog_io[4]
*25 analog_io[5]
*26 analog_io[6]
*27 analog_io[7]
*28 analog_io[8]
*29 analog_io[9]
*30 io_in[0]
*31 io_in[10]
*32 io_in[11]
*33 io_in[12]
*34 io_in[13]
*35 io_in[14]
*36 io_in[15]
*37 io_in[16]
*38 io_in[17]
*39 io_in[18]
*40 io_in[19]
*41 io_in[1]
*42 io_in[20]
*43 io_in[21]
*44 io_in[22]
*45 io_in[23]
*46 io_in[24]
*47 io_in[25]
*48 io_in[26]
*49 io_in[27]
*50 io_in[28]
*51 io_in[29]
*52 io_in[2]
*53 io_in[30]
*54 io_in[31]
*55 io_in[32]
*56 io_in[33]
*57 io_in[34]
*58 io_in[35]
*59 io_in[36]
*60 io_in[37]
*61 io_in[3]
*62 io_in[4]
*63 io_in[5]
*64 io_in[6]
*65 io_in[7]
*66 io_in[8]
*67 io_in[9]
*68 net35
*69 net45
*70 net46
*71 net47
*72 net48
*73 net49
*74 net50
*75 net51
*76 net52
*77 net53
*78 net54
*79 net36
*80 net55
*81 net56
*82 net57
*83 net58
*84 net59
*85 net60
*86 net61
*87 net62
*88 net63
*89 net64
*90 net37
*91 net65
*92 net66
*93 net67
*94 net68
*95 net69
*96 net70
*97 net71
*98 net72
*99 net38
*100 net39
*101 net40
*102 net41
*103 net42
*104 net43
*105 net44
*106 net73
*107 net83
*108 net84
*109 net85
*110 net86
*111 net87
*112 net88
*113 net89
*114 net90
*115 net91
*116 net92
*117 net74
*118 net93
*119 net94
*120 net95
*121 net96
*122 net97
*123 net98
*124 net99
*125 net100
*126 net101
*127 net102
*128 net75
*129 net103
*130 net104
*131 net105
*132 net106
*133 net107
*134 net108
*135 net109
*136 net110
*137 net76
*138 net77
*139 net78
*140 net79
*141 net80
*142 net81
*143 net82
*144 la_data_in[0]
*145 la_data_in[100]
*146 la_data_in[101]
*147 la_data_in[102]
*148 la_data_in[103]
*149 la_data_in[104]
*150 la_data_in[105]
*151 la_data_in[106]
*152 la_data_in[107]
*153 la_data_in[108]
*154 la_data_in[109]
*155 la_data_in[10]
*156 la_data_in[110]
*157 la_data_in[111]
*158 la_data_in[112]
*159 la_data_in[113]
*160 la_data_in[114]
*161 la_data_in[115]
*162 la_data_in[116]
*163 la_data_in[117]
*164 la_data_in[118]
*165 la_data_in[119]
*166 la_data_in[11]
*167 la_data_in[120]
*168 la_data_in[121]
*169 la_data_in[122]
*170 la_data_in[123]
*171 la_data_in[124]
*172 la_data_in[125]
*173 la_data_in[126]
*174 la_data_in[127]
*175 la_data_in[12]
*176 la_data_in[13]
*177 la_data_in[14]
*178 la_data_in[15]
*179 la_data_in[16]
*180 la_data_in[17]
*181 la_data_in[18]
*182 la_data_in[19]
*183 la_data_in[1]
*184 la_data_in[20]
*185 la_data_in[21]
*186 la_data_in[22]
*187 la_data_in[23]
*188 la_data_in[24]
*189 la_data_in[25]
*190 la_data_in[26]
*191 la_data_in[27]
*192 la_data_in[28]
*193 la_data_in[29]
*194 la_data_in[2]
*195 la_data_in[30]
*196 la_data_in[31]
*197 la_data_in[32]
*198 la_data_in[33]
*199 la_data_in[34]
*200 la_data_in[35]
*201 la_data_in[36]
*202 la_data_in[37]
*203 la_data_in[38]
*204 la_data_in[39]
*205 la_data_in[3]
*206 la_data_in[40]
*207 la_data_in[41]
*208 la_data_in[42]
*209 la_data_in[43]
*210 la_data_in[44]
*211 la_data_in[45]
*212 la_data_in[46]
*213 la_data_in[47]
*214 la_data_in[48]
*215 la_data_in[49]
*216 la_data_in[4]
*217 la_data_in[50]
*218 la_data_in[51]
*219 la_data_in[52]
*220 la_data_in[53]
*221 la_data_in[54]
*222 la_data_in[55]
*223 la_data_in[56]
*224 la_data_in[57]
*225 la_data_in[58]
*226 la_data_in[59]
*227 la_data_in[5]
*228 la_data_in[60]
*229 la_data_in[61]
*230 la_data_in[62]
*231 la_data_in[63]
*232 la_data_in[64]
*233 la_data_in[65]
*234 la_data_in[66]
*235 la_data_in[67]
*236 la_data_in[68]
*237 la_data_in[69]
*238 la_data_in[6]
*239 la_data_in[70]
*240 la_data_in[71]
*241 la_data_in[72]
*242 la_data_in[73]
*243 la_data_in[74]
*244 la_data_in[75]
*245 la_data_in[76]
*246 la_data_in[77]
*247 la_data_in[78]
*248 la_data_in[79]
*249 la_data_in[7]
*250 la_data_in[80]
*251 la_data_in[81]
*252 la_data_in[82]
*253 la_data_in[83]
*254 la_data_in[84]
*255 la_data_in[85]
*256 la_data_in[86]
*257 la_data_in[87]
*258 la_data_in[88]
*259 la_data_in[89]
*260 la_data_in[8]
*261 la_data_in[90]
*262 la_data_in[91]
*263 la_data_in[92]
*264 la_data_in[93]
*265 la_data_in[94]
*266 la_data_in[95]
*267 la_data_in[96]
*268 la_data_in[97]
*269 la_data_in[98]
*270 la_data_in[99]
*271 la_data_in[9]
*272 net111
*273 net211
*274 net212
*275 net213
*276 net214
*277 net215
*278 net216
*279 net217
*280 net218
*281 net219
*282 net220
*283 net121
*284 net221
*285 net222
*286 net223
*287 net224
*288 net225
*289 net226
*290 net227
*291 net228
*292 net229
*293 net230
*294 net122
*295 net231
*296 net232
*297 net233
*298 net234
*299 net235
*300 net236
*301 net237
*302 net238
*303 net123
*304 net124
*305 net125
*306 net126
*307 net127
*308 net128
*309 net129
*310 net130
*311 net112
*312 net131
*313 net132
*314 net133
*315 net134
*316 net135
*317 net136
*318 net137
*319 net138
*320 net139
*321 net140
*322 net113
*323 net141
*324 net142
*325 net143
*326 net144
*327 net145
*328 net146
*329 net147
*330 net148
*331 net149
*332 net150
*333 net114
*334 net151
*335 net152
*336 net153
*337 net154
*338 net155
*339 net156
*340 net157
*341 net158
*342 net159
*343 net160
*344 net115
*345 net161
*346 net162
*347 net163
*348 net164
*349 net165
*350 net166
*351 net167
*352 net168
*353 net169
*354 net170
*355 net116
*356 net171
*357 net172
*358 net173
*359 net174
*360 net175
*361 net176
*362 net177
*363 net178
*364 net179
*365 net180
*366 net117
*367 net181
*368 net182
*369 net183
*370 net184
*371 net185
*372 net186
*373 net187
*374 net188
*375 net189
*376 net190
*377 net118
*378 net191
*379 net192
*380 net193
*381 net194
*382 net195
*383 net196
*384 net197
*385 net198
*386 net199
*387 net200
*388 net119
*389 net201
*390 net202
*391 net203
*392 net204
*393 net205
*394 net206
*395 net207
*396 net208
*397 net209
*398 net210
*399 net120
*400 la_oenb[0]
*401 la_oenb[100]
*402 la_oenb[101]
*403 la_oenb[102]
*404 la_oenb[103]
*405 la_oenb[104]
*406 la_oenb[105]
*407 la_oenb[106]
*408 la_oenb[107]
*409 la_oenb[108]
*410 la_oenb[109]
*411 la_oenb[10]
*412 la_oenb[110]
*413 la_oenb[111]
*414 la_oenb[112]
*415 la_oenb[113]
*416 la_oenb[114]
*417 la_oenb[115]
*418 la_oenb[116]
*419 la_oenb[117]
*420 la_oenb[118]
*421 la_oenb[119]
*422 la_oenb[11]
*423 la_oenb[120]
*424 la_oenb[121]
*425 la_oenb[122]
*426 la_oenb[123]
*427 la_oenb[124]
*428 la_oenb[125]
*429 la_oenb[126]
*430 la_oenb[127]
*431 la_oenb[12]
*432 la_oenb[13]
*433 la_oenb[14]
*434 la_oenb[15]
*435 la_oenb[16]
*436 la_oenb[17]
*437 la_oenb[18]
*438 la_oenb[19]
*439 la_oenb[1]
*440 la_oenb[20]
*441 la_oenb[21]
*442 la_oenb[22]
*443 la_oenb[23]
*444 la_oenb[24]
*445 la_oenb[25]
*446 la_oenb[26]
*447 la_oenb[27]
*448 la_oenb[28]
*449 la_oenb[29]
*450 la_oenb[2]
*451 la_oenb[30]
*452 la_oenb[31]
*453 la_oenb[32]
*454 la_oenb[33]
*455 la_oenb[34]
*456 la_oenb[35]
*457 la_oenb[36]
*458 la_oenb[37]
*459 la_oenb[38]
*460 la_oenb[39]
*461 la_oenb[3]
*462 la_oenb[40]
*463 la_oenb[41]
*464 la_oenb[42]
*465 la_oenb[43]
*466 la_oenb[44]
*467 la_oenb[45]
*468 la_oenb[46]
*469 la_oenb[47]
*470 la_oenb[48]
*471 la_oenb[49]
*472 la_oenb[4]
*473 la_oenb[50]
*474 la_oenb[51]
*475 la_oenb[52]
*476 la_oenb[53]
*477 la_oenb[54]
*478 la_oenb[55]
*479 la_oenb[56]
*480 la_oenb[57]
*481 la_oenb[58]
*482 la_oenb[59]
*483 la_oenb[5]
*484 la_oenb[60]
*485 la_oenb[61]
*486 la_oenb[62]
*487 la_oenb[63]
*488 la_oenb[64]
*489 la_oenb[65]
*490 la_oenb[66]
*491 la_oenb[67]
*492 la_oenb[68]
*493 la_oenb[69]
*494 la_oenb[6]
*495 la_oenb[70]
*496 la_oenb[71]
*497 la_oenb[72]
*498 la_oenb[73]
*499 la_oenb[74]
*500 la_oenb[75]
*501 la_oenb[76]
*502 la_oenb[77]
*503 la_oenb[78]
*504 la_oenb[79]
*505 la_oenb[7]
*506 la_oenb[80]
*507 la_oenb[81]
*508 la_oenb[82]
*509 la_oenb[83]
*510 la_oenb[84]
*511 la_oenb[85]
*512 la_oenb[86]
*513 la_oenb[87]
*514 la_oenb[88]
*515 la_oenb[89]
*516 la_oenb[8]
*517 la_oenb[90]
*518 la_oenb[91]
*519 la_oenb[92]
*520 la_oenb[93]
*521 la_oenb[94]
*522 la_oenb[95]
*523 la_oenb[96]
*524 la_oenb[97]
*525 la_oenb[98]
*526 la_oenb[99]
*527 la_oenb[9]
*528 user_clock2
*529 net239
*530 net240
*531 net241
*534 wb_clk_i
*535 wb_rst_i
*536 wbs_ack_o
*537 wbs_adr_i[0]
*538 wbs_adr_i[10]
*539 wbs_adr_i[11]
*540 wbs_adr_i[12]
*541 wbs_adr_i[13]
*542 wbs_adr_i[14]
*543 wbs_adr_i[15]
*544 wbs_adr_i[16]
*545 wbs_adr_i[17]
*546 wbs_adr_i[18]
*547 wbs_adr_i[19]
*548 wbs_adr_i[1]
*549 wbs_adr_i[20]
*550 wbs_adr_i[21]
*551 wbs_adr_i[22]
*552 wbs_adr_i[23]
*553 wbs_adr_i[24]
*554 wbs_adr_i[25]
*555 wbs_adr_i[26]
*556 wbs_adr_i[27]
*557 wbs_adr_i[28]
*558 wbs_adr_i[29]
*559 wbs_adr_i[2]
*560 wbs_adr_i[30]
*561 wbs_adr_i[31]
*562 wbs_adr_i[3]
*563 wbs_adr_i[4]
*564 wbs_adr_i[5]
*565 wbs_adr_i[6]
*566 wbs_adr_i[7]
*567 wbs_adr_i[8]
*568 wbs_adr_i[9]
*569 wbs_cyc_i
*570 wbs_dat_i[0]
*571 wbs_dat_i[10]
*572 wbs_dat_i[11]
*573 wbs_dat_i[12]
*574 wbs_dat_i[13]
*575 wbs_dat_i[14]
*576 wbs_dat_i[15]
*577 wbs_dat_i[16]
*578 wbs_dat_i[17]
*579 wbs_dat_i[18]
*580 wbs_dat_i[19]
*581 wbs_dat_i[1]
*582 wbs_dat_i[20]
*583 wbs_dat_i[21]
*584 wbs_dat_i[22]
*585 wbs_dat_i[23]
*586 wbs_dat_i[24]
*587 wbs_dat_i[25]
*588 wbs_dat_i[26]
*589 wbs_dat_i[27]
*590 wbs_dat_i[28]
*591 wbs_dat_i[29]
*592 wbs_dat_i[2]
*593 wbs_dat_i[30]
*594 wbs_dat_i[31]
*595 wbs_dat_i[3]
*596 wbs_dat_i[4]
*597 wbs_dat_i[5]
*598 wbs_dat_i[6]
*599 wbs_dat_i[7]
*600 wbs_dat_i[8]
*601 wbs_dat_i[9]
*602 net260
*603 net248
*604 net249
*605 net264
*606 net265
*607 net250
*608 net251
*609 net266
*610 net252
*611 net267
*612 net253
*613 net242
*614 net268
*615 net254
*616 net269
*617 net255
*618 net256
*619 net270
*620 net257
*621 net271
*622 net258
*623 net272
*624 net243
*625 net259
*626 net273
*627 net244
*628 net261
*629 net245
*630 net246
*631 net247
*632 net262
*633 net263
*634 wbs_sel_i[0]
*635 wbs_sel_i[1]
*636 wbs_sel_i[2]
*637 wbs_sel_i[3]
*638 wbs_stb_i
*639 wbs_we_i
*640 _000_
*641 _001_
*642 _002_
*643 _003_
*644 _004_
*645 _005_
*646 _006_
*647 _007_
*648 _008_
*649 _009_
*650 _010_
*651 _011_
*652 net1
*653 net10
*654 net11
*655 net12
*656 net13
*657 net14
*658 net15
*659 net16
*660 net17
*661 net18
*662 net19
*663 net2
*664 net20
*665 net21
*666 net22
*667 net23
*668 net24
*669 net25
*670 net26
*671 net27
*672 net274
*673 net275
*674 net276
*675 net277
*676 net278
*677 net279
*678 net28
*679 net280
*680 net281
*681 net29
*682 net3
*683 net30
*684 net31
*685 net32
*686 net33
*687 net34
*688 net4
*689 net5
*690 net6
*691 net7
*692 net8
*693 net9
*694 ANTENNA__012__C_N
*695 FILLER_0_0_1005
*696 FILLER_0_0_1009
*697 FILLER_0_0_1021
*698 FILLER_0_0_1033
*699 FILLER_0_0_1037
*700 FILLER_0_0_1049
*701 FILLER_0_0_1061
*702 FILLER_0_0_1065
*703 FILLER_0_0_1077
*704 FILLER_0_0_1089
*705 FILLER_0_0_109
*706 FILLER_0_0_1093
*707 FILLER_0_0_1105
*708 FILLER_0_0_1117
*709 FILLER_0_0_1121
*710 FILLER_0_0_113
*711 FILLER_0_0_1133
*712 FILLER_0_0_1145
*713 FILLER_0_0_1149
*714 FILLER_0_0_1161
*715 FILLER_0_0_1173
*716 FILLER_0_0_1177
*717 FILLER_0_0_1189
*718 FILLER_0_0_1201
*719 FILLER_0_0_1205
*720 FILLER_0_0_1217
*721 FILLER_0_0_1229
*722 FILLER_0_0_1233
*723 FILLER_0_0_1245
*724 FILLER_0_0_1257
*725 FILLER_0_0_1261
*726 FILLER_0_0_1273
*727 FILLER_0_0_1277
*728 FILLER_0_0_1282
*729 FILLER_0_0_1287
*730 FILLER_0_0_1292
*731 FILLER_0_0_1297
*732 FILLER_0_0_1302
*733 FILLER_0_0_1307
*734 FILLER_0_0_1312
*735 FILLER_0_0_1317
*736 FILLER_0_0_1322
*737 FILLER_0_0_1327
*738 FILLER_0_0_1332
*739 FILLER_0_0_1337
*740 FILLER_0_0_1342
*741 FILLER_0_0_1348
*742 FILLER_0_0_1352
*743 FILLER_0_0_1357
*744 FILLER_0_0_1362
*745 FILLER_0_0_1367
*746 FILLER_0_0_1373
*747 FILLER_0_0_1377
*748 FILLER_0_0_138
*749 FILLER_0_0_1382
*750 FILLER_0_0_1387
*751 FILLER_0_0_1392
*752 FILLER_0_0_1397
*753 FILLER_0_0_1407
*754 FILLER_0_0_1412
*755 FILLER_0_0_1417
*756 FILLER_0_0_1422
*757 FILLER_0_0_1427
*758 FILLER_0_0_1432
*759 FILLER_0_0_1437
*760 FILLER_0_0_1442
*761 FILLER_0_0_1447
*762 FILLER_0_0_1452
*763 FILLER_0_0_1463
*764 FILLER_0_0_1467
*765 FILLER_0_0_1472
*766 FILLER_0_0_1477
*767 FILLER_0_0_1482
*768 FILLER_0_0_1488
*769 FILLER_0_0_1492
*770 FILLER_0_0_1497
*771 FILLER_0_0_15
*772 FILLER_0_0_1502
*773 FILLER_0_0_1507
*774 FILLER_0_0_1513
*775 FILLER_0_0_1517
*776 FILLER_0_0_1522
*777 FILLER_0_0_1527
*778 FILLER_0_0_1532
*779 FILLER_0_0_1537
*780 FILLER_0_0_1547
*781 FILLER_0_0_1552
*782 FILLER_0_0_1557
*783 FILLER_0_0_1562
*784 FILLER_0_0_1567
*785 FILLER_0_0_1572
*786 FILLER_0_0_1577
*787 FILLER_0_0_1582
*788 FILLER_0_0_1587
*789 FILLER_0_0_1592
*790 FILLER_0_0_1603
*791 FILLER_0_0_1607
*792 FILLER_0_0_1612
*793 FILLER_0_0_1617
*794 FILLER_0_0_1622
*795 FILLER_0_0_1628
*796 FILLER_0_0_1632
*797 FILLER_0_0_1637
*798 FILLER_0_0_1642
*799 FILLER_0_0_1647
*800 FILLER_0_0_1653
*801 FILLER_0_0_1657
*802 FILLER_0_0_1662
*803 FILLER_0_0_1667
*804 FILLER_0_0_1672
*805 FILLER_0_0_1677
*806 FILLER_0_0_1687
*807 FILLER_0_0_169
*808 FILLER_0_0_1692
*809 FILLER_0_0_1697
*810 FILLER_0_0_1702
*811 FILLER_0_0_1707
*812 FILLER_0_0_1712
*813 FILLER_0_0_1717
*814 FILLER_0_0_1722
*815 FILLER_0_0_1727
*816 FILLER_0_0_1732
*817 FILLER_0_0_1743
*818 FILLER_0_0_1747
*819 FILLER_0_0_1752
*820 FILLER_0_0_1757
*821 FILLER_0_0_1762
*822 FILLER_0_0_1768
*823 FILLER_0_0_1772
*824 FILLER_0_0_1777
*825 FILLER_0_0_1782
*826 FILLER_0_0_1787
*827 FILLER_0_0_1793
*828 FILLER_0_0_1797
*829 FILLER_0_0_1802
*830 FILLER_0_0_1807
*831 FILLER_0_0_1812
*832 FILLER_0_0_1817
*833 FILLER_0_0_1827
*834 FILLER_0_0_1832
*835 FILLER_0_0_1837
*836 FILLER_0_0_1842
*837 FILLER_0_0_1847
*838 FILLER_0_0_1852
*839 FILLER_0_0_1857
*840 FILLER_0_0_1862
*841 FILLER_0_0_1867
*842 FILLER_0_0_1872
*843 FILLER_0_0_1883
*844 FILLER_0_0_1887
*845 FILLER_0_0_1892
*846 FILLER_0_0_1897
*847 FILLER_0_0_1902
*848 FILLER_0_0_1908
*849 FILLER_0_0_1912
*850 FILLER_0_0_1924
*851 FILLER_0_0_1933
*852 FILLER_0_0_1945
*853 FILLER_0_0_1957
*854 FILLER_0_0_1961
*855 FILLER_0_0_1973
*856 FILLER_0_0_1985
*857 FILLER_0_0_1989
*858 FILLER_0_0_2001
*859 FILLER_0_0_2013
*860 FILLER_0_0_2017
*861 FILLER_0_0_2029
*862 FILLER_0_0_203
*863 FILLER_0_0_2041
*864 FILLER_0_0_2045
*865 FILLER_0_0_2057
*866 FILLER_0_0_2069
*867 FILLER_0_0_2073
*868 FILLER_0_0_2085
*869 FILLER_0_0_2097
*870 FILLER_0_0_2101
*871 FILLER_0_0_2113
*872 FILLER_0_0_2125
*873 FILLER_0_0_2129
*874 FILLER_0_0_2141
*875 FILLER_0_0_2153
*876 FILLER_0_0_2157
*877 FILLER_0_0_2169
*878 FILLER_0_0_2181
*879 FILLER_0_0_2185
*880 FILLER_0_0_2197
*881 FILLER_0_0_2209
*882 FILLER_0_0_2213
*883 FILLER_0_0_2225
*884 FILLER_0_0_2237
*885 FILLER_0_0_2241
*886 FILLER_0_0_2253
*887 FILLER_0_0_2265
*888 FILLER_0_0_2269
*889 FILLER_0_0_228
*890 FILLER_0_0_2281
*891 FILLER_0_0_2293
*892 FILLER_0_0_2297
*893 FILLER_0_0_2309
*894 FILLER_0_0_232
*895 FILLER_0_0_2321
*896 FILLER_0_0_2325
*897 FILLER_0_0_2337
*898 FILLER_0_0_2349
*899 FILLER_0_0_2353
*900 FILLER_0_0_2365
*901 FILLER_0_0_237
*902 FILLER_0_0_2377
*903 FILLER_0_0_2381
*904 FILLER_0_0_2393
*905 FILLER_0_0_2405
*906 FILLER_0_0_2409
*907 FILLER_0_0_2421
*908 FILLER_0_0_2433
*909 FILLER_0_0_2437
*910 FILLER_0_0_2449
*911 FILLER_0_0_2461
*912 FILLER_0_0_2465
*913 FILLER_0_0_2477
*914 FILLER_0_0_2489
*915 FILLER_0_0_2493
*916 FILLER_0_0_2505
*917 FILLER_0_0_2517
*918 FILLER_0_0_2521
*919 FILLER_0_0_2533
*920 FILLER_0_0_2545
*921 FILLER_0_0_2549
*922 FILLER_0_0_2557
*923 FILLER_0_0_2562
*924 FILLER_0_0_2567
*925 FILLER_0_0_2575
*926 FILLER_0_0_2583
*927 FILLER_0_0_2592
*928 FILLER_0_0_2597
*929 FILLER_0_0_2603
*930 FILLER_0_0_2608
*931 FILLER_0_0_2612
*932 FILLER_0_0_2618
*933 FILLER_0_0_2622
*934 FILLER_0_0_2627
*935 FILLER_0_0_2631
*936 FILLER_0_0_2633
*937 FILLER_0_0_2637
*938 FILLER_0_0_2642
*939 FILLER_0_0_2648
*940 FILLER_0_0_2652
*941 FILLER_0_0_2657
*942 FILLER_0_0_2661
*943 FILLER_0_0_2672
*944 FILLER_0_0_2677
*945 FILLER_0_0_2685
*946 FILLER_0_0_2692
*947 FILLER_0_0_2697
*948 FILLER_0_0_27
*949 FILLER_0_0_2702
*950 FILLER_0_0_2714
*951 FILLER_0_0_2717
*952 FILLER_0_0_2729
*953 FILLER_0_0_2741
*954 FILLER_0_0_2745
*955 FILLER_0_0_2757
*956 FILLER_0_0_2769
*957 FILLER_0_0_2773
*958 FILLER_0_0_2785
*959 FILLER_0_0_2797
*960 FILLER_0_0_284
*961 FILLER_0_0_288
*962 FILLER_0_0_29
*963 FILLER_0_0_3
*964 FILLER_0_0_300
*965 FILLER_0_0_309
*966 FILLER_0_0_321
*967 FILLER_0_0_333
*968 FILLER_0_0_337
*969 FILLER_0_0_349
*970 FILLER_0_0_361
*971 FILLER_0_0_365
*972 FILLER_0_0_377
*973 FILLER_0_0_389
*974 FILLER_0_0_393
*975 FILLER_0_0_405
*976 FILLER_0_0_41
*977 FILLER_0_0_417
*978 FILLER_0_0_421
*979 FILLER_0_0_433
*980 FILLER_0_0_441
*981 FILLER_0_0_447
*982 FILLER_0_0_452
*983 FILLER_0_0_457
*984 FILLER_0_0_462
*985 FILLER_0_0_467
*986 FILLER_0_0_472
*987 FILLER_0_0_477
*988 FILLER_0_0_482
*989 FILLER_0_0_487
*990 FILLER_0_0_492
*991 FILLER_0_0_497
*992 FILLER_0_0_502
*993 FILLER_0_0_508
*994 FILLER_0_0_512
*995 FILLER_0_0_517
*996 FILLER_0_0_522
*997 FILLER_0_0_527
*998 FILLER_0_0_53
*999 FILLER_0_0_533
*1000 FILLER_0_0_537
*1001 FILLER_0_0_542
*1002 FILLER_0_0_547
*1003 FILLER_0_0_552
*1004 FILLER_0_0_557
*1005 FILLER_0_0_567
*1006 FILLER_0_0_57
*1007 FILLER_0_0_572
*1008 FILLER_0_0_577
*1009 FILLER_0_0_582
*1010 FILLER_0_0_587
*1011 FILLER_0_0_592
*1012 FILLER_0_0_597
*1013 FILLER_0_0_602
*1014 FILLER_0_0_614
*1015 FILLER_0_0_617
*1016 FILLER_0_0_623
*1017 FILLER_0_0_634
*1018 FILLER_0_0_640
*1019 FILLER_0_0_645
*1020 FILLER_0_0_657
*1021 FILLER_0_0_669
*1022 FILLER_0_0_673
*1023 FILLER_0_0_685
*1024 FILLER_0_0_69
*1025 FILLER_0_0_697
*1026 FILLER_0_0_701
*1027 FILLER_0_0_713
*1028 FILLER_0_0_725
*1029 FILLER_0_0_729
*1030 FILLER_0_0_741
*1031 FILLER_0_0_753
*1032 FILLER_0_0_757
*1033 FILLER_0_0_769
*1034 FILLER_0_0_781
*1035 FILLER_0_0_785
*1036 FILLER_0_0_797
*1037 FILLER_0_0_809
*1038 FILLER_0_0_81
*1039 FILLER_0_0_813
*1040 FILLER_0_0_825
*1041 FILLER_0_0_837
*1042 FILLER_0_0_841
*1043 FILLER_0_0_85
*1044 FILLER_0_0_853
*1045 FILLER_0_0_865
*1046 FILLER_0_0_869
*1047 FILLER_0_0_881
*1048 FILLER_0_0_893
*1049 FILLER_0_0_897
*1050 FILLER_0_0_909
*1051 FILLER_0_0_921
*1052 FILLER_0_0_925
*1053 FILLER_0_0_937
*1054 FILLER_0_0_949
*1055 FILLER_0_0_953
*1056 FILLER_0_0_965
*1057 FILLER_0_0_97
*1058 FILLER_0_0_977
*1059 FILLER_0_0_981
*1060 FILLER_0_0_993
*1061 FILLER_0_100_1005
*1062 FILLER_0_100_1017
*1063 FILLER_0_100_1029
*1064 FILLER_0_100_1035
*1065 FILLER_0_100_1037
*1066 FILLER_0_100_1049
*1067 FILLER_0_100_1061
*1068 FILLER_0_100_1073
*1069 FILLER_0_100_1085
*1070 FILLER_0_100_109
*1071 FILLER_0_100_1091
*1072 FILLER_0_100_1093
*1073 FILLER_0_100_1105
*1074 FILLER_0_100_1117
*1075 FILLER_0_100_1129
*1076 FILLER_0_100_1141
*1077 FILLER_0_100_1147
*1078 FILLER_0_100_1149
*1079 FILLER_0_100_1161
*1080 FILLER_0_100_1173
*1081 FILLER_0_100_1185
*1082 FILLER_0_100_1197
*1083 FILLER_0_100_1203
*1084 FILLER_0_100_1205
*1085 FILLER_0_100_121
*1086 FILLER_0_100_1217
*1087 FILLER_0_100_1229
*1088 FILLER_0_100_1241
*1089 FILLER_0_100_1253
*1090 FILLER_0_100_1259
*1091 FILLER_0_100_1261
*1092 FILLER_0_100_1273
*1093 FILLER_0_100_1285
*1094 FILLER_0_100_1297
*1095 FILLER_0_100_1309
*1096 FILLER_0_100_1315
*1097 FILLER_0_100_1317
*1098 FILLER_0_100_1329
*1099 FILLER_0_100_133
*1100 FILLER_0_100_1341
*1101 FILLER_0_100_1353
*1102 FILLER_0_100_1365
*1103 FILLER_0_100_1371
*1104 FILLER_0_100_1373
*1105 FILLER_0_100_1385
*1106 FILLER_0_100_139
*1107 FILLER_0_100_1397
*1108 FILLER_0_100_1409
*1109 FILLER_0_100_141
*1110 FILLER_0_100_1421
*1111 FILLER_0_100_1427
*1112 FILLER_0_100_1429
*1113 FILLER_0_100_1441
*1114 FILLER_0_100_1453
*1115 FILLER_0_100_1465
*1116 FILLER_0_100_1477
*1117 FILLER_0_100_1483
*1118 FILLER_0_100_1485
*1119 FILLER_0_100_1497
*1120 FILLER_0_100_15
*1121 FILLER_0_100_1509
*1122 FILLER_0_100_1521
*1123 FILLER_0_100_153
*1124 FILLER_0_100_1533
*1125 FILLER_0_100_1539
*1126 FILLER_0_100_1541
*1127 FILLER_0_100_1553
*1128 FILLER_0_100_1565
*1129 FILLER_0_100_1577
*1130 FILLER_0_100_1589
*1131 FILLER_0_100_1595
*1132 FILLER_0_100_1597
*1133 FILLER_0_100_1609
*1134 FILLER_0_100_1621
*1135 FILLER_0_100_1633
*1136 FILLER_0_100_1645
*1137 FILLER_0_100_165
*1138 FILLER_0_100_1651
*1139 FILLER_0_100_1653
*1140 FILLER_0_100_1665
*1141 FILLER_0_100_1677
*1142 FILLER_0_100_1689
*1143 FILLER_0_100_1701
*1144 FILLER_0_100_1707
*1145 FILLER_0_100_1709
*1146 FILLER_0_100_1721
*1147 FILLER_0_100_1733
*1148 FILLER_0_100_1745
*1149 FILLER_0_100_1757
*1150 FILLER_0_100_1763
*1151 FILLER_0_100_1765
*1152 FILLER_0_100_177
*1153 FILLER_0_100_1777
*1154 FILLER_0_100_1789
*1155 FILLER_0_100_1801
*1156 FILLER_0_100_1813
*1157 FILLER_0_100_1819
*1158 FILLER_0_100_1821
*1159 FILLER_0_100_1833
*1160 FILLER_0_100_1845
*1161 FILLER_0_100_1857
*1162 FILLER_0_100_1869
*1163 FILLER_0_100_1875
*1164 FILLER_0_100_1877
*1165 FILLER_0_100_1889
*1166 FILLER_0_100_189
*1167 FILLER_0_100_1901
*1168 FILLER_0_100_1913
*1169 FILLER_0_100_1925
*1170 FILLER_0_100_1931
*1171 FILLER_0_100_1933
*1172 FILLER_0_100_1945
*1173 FILLER_0_100_195
*1174 FILLER_0_100_1957
*1175 FILLER_0_100_1969
*1176 FILLER_0_100_197
*1177 FILLER_0_100_1981
*1178 FILLER_0_100_1987
*1179 FILLER_0_100_1989
*1180 FILLER_0_100_2001
*1181 FILLER_0_100_2013
*1182 FILLER_0_100_2025
*1183 FILLER_0_100_2037
*1184 FILLER_0_100_2043
*1185 FILLER_0_100_2045
*1186 FILLER_0_100_2057
*1187 FILLER_0_100_2069
*1188 FILLER_0_100_2081
*1189 FILLER_0_100_209
*1190 FILLER_0_100_2093
*1191 FILLER_0_100_2099
*1192 FILLER_0_100_2101
*1193 FILLER_0_100_2113
*1194 FILLER_0_100_2125
*1195 FILLER_0_100_2137
*1196 FILLER_0_100_2149
*1197 FILLER_0_100_2155
*1198 FILLER_0_100_2157
*1199 FILLER_0_100_2169
*1200 FILLER_0_100_2181
*1201 FILLER_0_100_2193
*1202 FILLER_0_100_2205
*1203 FILLER_0_100_221
*1204 FILLER_0_100_2211
*1205 FILLER_0_100_2213
*1206 FILLER_0_100_2225
*1207 FILLER_0_100_2237
*1208 FILLER_0_100_2249
*1209 FILLER_0_100_2261
*1210 FILLER_0_100_2267
*1211 FILLER_0_100_2269
*1212 FILLER_0_100_2281
*1213 FILLER_0_100_2293
*1214 FILLER_0_100_2305
*1215 FILLER_0_100_2317
*1216 FILLER_0_100_2323
*1217 FILLER_0_100_2325
*1218 FILLER_0_100_233
*1219 FILLER_0_100_2337
*1220 FILLER_0_100_2349
*1221 FILLER_0_100_2361
*1222 FILLER_0_100_2373
*1223 FILLER_0_100_2379
*1224 FILLER_0_100_2381
*1225 FILLER_0_100_2393
*1226 FILLER_0_100_2405
*1227 FILLER_0_100_2417
*1228 FILLER_0_100_2429
*1229 FILLER_0_100_2435
*1230 FILLER_0_100_2437
*1231 FILLER_0_100_2449
*1232 FILLER_0_100_245
*1233 FILLER_0_100_2461
*1234 FILLER_0_100_2473
*1235 FILLER_0_100_2485
*1236 FILLER_0_100_2491
*1237 FILLER_0_100_2493
*1238 FILLER_0_100_2505
*1239 FILLER_0_100_251
*1240 FILLER_0_100_2517
*1241 FILLER_0_100_2529
*1242 FILLER_0_100_253
*1243 FILLER_0_100_2541
*1244 FILLER_0_100_2547
*1245 FILLER_0_100_2549
*1246 FILLER_0_100_2561
*1247 FILLER_0_100_2573
*1248 FILLER_0_100_2585
*1249 FILLER_0_100_2597
*1250 FILLER_0_100_2603
*1251 FILLER_0_100_2605
*1252 FILLER_0_100_2617
*1253 FILLER_0_100_2629
*1254 FILLER_0_100_2641
*1255 FILLER_0_100_265
*1256 FILLER_0_100_2653
*1257 FILLER_0_100_2659
*1258 FILLER_0_100_2661
*1259 FILLER_0_100_2673
*1260 FILLER_0_100_2685
*1261 FILLER_0_100_2697
*1262 FILLER_0_100_27
*1263 FILLER_0_100_2709
*1264 FILLER_0_100_2715
*1265 FILLER_0_100_2717
*1266 FILLER_0_100_2729
*1267 FILLER_0_100_2741
*1268 FILLER_0_100_2753
*1269 FILLER_0_100_2765
*1270 FILLER_0_100_277
*1271 FILLER_0_100_2771
*1272 FILLER_0_100_2773
*1273 FILLER_0_100_2785
*1274 FILLER_0_100_2797
*1275 FILLER_0_100_289
*1276 FILLER_0_100_29
*1277 FILLER_0_100_3
*1278 FILLER_0_100_301
*1279 FILLER_0_100_307
*1280 FILLER_0_100_309
*1281 FILLER_0_100_321
*1282 FILLER_0_100_333
*1283 FILLER_0_100_345
*1284 FILLER_0_100_357
*1285 FILLER_0_100_363
*1286 FILLER_0_100_365
*1287 FILLER_0_100_377
*1288 FILLER_0_100_389
*1289 FILLER_0_100_401
*1290 FILLER_0_100_41
*1291 FILLER_0_100_413
*1292 FILLER_0_100_419
*1293 FILLER_0_100_421
*1294 FILLER_0_100_433
*1295 FILLER_0_100_445
*1296 FILLER_0_100_457
*1297 FILLER_0_100_469
*1298 FILLER_0_100_475
*1299 FILLER_0_100_477
*1300 FILLER_0_100_489
*1301 FILLER_0_100_501
*1302 FILLER_0_100_513
*1303 FILLER_0_100_525
*1304 FILLER_0_100_53
*1305 FILLER_0_100_531
*1306 FILLER_0_100_533
*1307 FILLER_0_100_545
*1308 FILLER_0_100_557
*1309 FILLER_0_100_569
*1310 FILLER_0_100_581
*1311 FILLER_0_100_587
*1312 FILLER_0_100_589
*1313 FILLER_0_100_601
*1314 FILLER_0_100_613
*1315 FILLER_0_100_625
*1316 FILLER_0_100_637
*1317 FILLER_0_100_643
*1318 FILLER_0_100_645
*1319 FILLER_0_100_65
*1320 FILLER_0_100_657
*1321 FILLER_0_100_669
*1322 FILLER_0_100_681
*1323 FILLER_0_100_693
*1324 FILLER_0_100_699
*1325 FILLER_0_100_701
*1326 FILLER_0_100_713
*1327 FILLER_0_100_725
*1328 FILLER_0_100_737
*1329 FILLER_0_100_749
*1330 FILLER_0_100_755
*1331 FILLER_0_100_757
*1332 FILLER_0_100_769
*1333 FILLER_0_100_77
*1334 FILLER_0_100_781
*1335 FILLER_0_100_793
*1336 FILLER_0_100_805
*1337 FILLER_0_100_811
*1338 FILLER_0_100_813
*1339 FILLER_0_100_825
*1340 FILLER_0_100_83
*1341 FILLER_0_100_837
*1342 FILLER_0_100_849
*1343 FILLER_0_100_85
*1344 FILLER_0_100_861
*1345 FILLER_0_100_867
*1346 FILLER_0_100_869
*1347 FILLER_0_100_881
*1348 FILLER_0_100_893
*1349 FILLER_0_100_905
*1350 FILLER_0_100_917
*1351 FILLER_0_100_923
*1352 FILLER_0_100_925
*1353 FILLER_0_100_937
*1354 FILLER_0_100_949
*1355 FILLER_0_100_961
*1356 FILLER_0_100_97
*1357 FILLER_0_100_973
*1358 FILLER_0_100_979
*1359 FILLER_0_100_981
*1360 FILLER_0_100_993
*1361 FILLER_0_101_1001
*1362 FILLER_0_101_1007
*1363 FILLER_0_101_1009
*1364 FILLER_0_101_1021
*1365 FILLER_0_101_1033
*1366 FILLER_0_101_1045
*1367 FILLER_0_101_105
*1368 FILLER_0_101_1057
*1369 FILLER_0_101_1063
*1370 FILLER_0_101_1065
*1371 FILLER_0_101_1077
*1372 FILLER_0_101_1089
*1373 FILLER_0_101_1101
*1374 FILLER_0_101_111
*1375 FILLER_0_101_1113
*1376 FILLER_0_101_1119
*1377 FILLER_0_101_1121
*1378 FILLER_0_101_113
*1379 FILLER_0_101_1133
*1380 FILLER_0_101_1145
*1381 FILLER_0_101_1157
*1382 FILLER_0_101_1169
*1383 FILLER_0_101_1175
*1384 FILLER_0_101_1177
*1385 FILLER_0_101_1189
*1386 FILLER_0_101_1201
*1387 FILLER_0_101_1213
*1388 FILLER_0_101_1225
*1389 FILLER_0_101_1231
*1390 FILLER_0_101_1233
*1391 FILLER_0_101_1245
*1392 FILLER_0_101_125
*1393 FILLER_0_101_1257
*1394 FILLER_0_101_1269
*1395 FILLER_0_101_1281
*1396 FILLER_0_101_1287
*1397 FILLER_0_101_1289
*1398 FILLER_0_101_1301
*1399 FILLER_0_101_1313
*1400 FILLER_0_101_1325
*1401 FILLER_0_101_1337
*1402 FILLER_0_101_1343
*1403 FILLER_0_101_1345
*1404 FILLER_0_101_1357
*1405 FILLER_0_101_1369
*1406 FILLER_0_101_137
*1407 FILLER_0_101_1381
*1408 FILLER_0_101_1393
*1409 FILLER_0_101_1399
*1410 FILLER_0_101_1401
*1411 FILLER_0_101_1413
*1412 FILLER_0_101_1425
*1413 FILLER_0_101_1437
*1414 FILLER_0_101_1449
*1415 FILLER_0_101_1455
*1416 FILLER_0_101_1457
*1417 FILLER_0_101_1469
*1418 FILLER_0_101_1481
*1419 FILLER_0_101_149
*1420 FILLER_0_101_1493
*1421 FILLER_0_101_15
*1422 FILLER_0_101_1505
*1423 FILLER_0_101_1511
*1424 FILLER_0_101_1513
*1425 FILLER_0_101_1525
*1426 FILLER_0_101_1537
*1427 FILLER_0_101_1549
*1428 FILLER_0_101_1561
*1429 FILLER_0_101_1567
*1430 FILLER_0_101_1569
*1431 FILLER_0_101_1581
*1432 FILLER_0_101_1593
*1433 FILLER_0_101_1605
*1434 FILLER_0_101_161
*1435 FILLER_0_101_1617
*1436 FILLER_0_101_1623
*1437 FILLER_0_101_1625
*1438 FILLER_0_101_1637
*1439 FILLER_0_101_1649
*1440 FILLER_0_101_1661
*1441 FILLER_0_101_167
*1442 FILLER_0_101_1673
*1443 FILLER_0_101_1679
*1444 FILLER_0_101_1681
*1445 FILLER_0_101_169
*1446 FILLER_0_101_1693
*1447 FILLER_0_101_1705
*1448 FILLER_0_101_1717
*1449 FILLER_0_101_1729
*1450 FILLER_0_101_1735
*1451 FILLER_0_101_1737
*1452 FILLER_0_101_1749
*1453 FILLER_0_101_1761
*1454 FILLER_0_101_1773
*1455 FILLER_0_101_1785
*1456 FILLER_0_101_1791
*1457 FILLER_0_101_1793
*1458 FILLER_0_101_1805
*1459 FILLER_0_101_181
*1460 FILLER_0_101_1817
*1461 FILLER_0_101_1829
*1462 FILLER_0_101_1841
*1463 FILLER_0_101_1847
*1464 FILLER_0_101_1849
*1465 FILLER_0_101_1861
*1466 FILLER_0_101_1873
*1467 FILLER_0_101_1885
*1468 FILLER_0_101_1897
*1469 FILLER_0_101_1903
*1470 FILLER_0_101_1905
*1471 FILLER_0_101_1917
*1472 FILLER_0_101_1929
*1473 FILLER_0_101_193
*1474 FILLER_0_101_1941
*1475 FILLER_0_101_1953
*1476 FILLER_0_101_1959
*1477 FILLER_0_101_1961
*1478 FILLER_0_101_1973
*1479 FILLER_0_101_1985
*1480 FILLER_0_101_1997
*1481 FILLER_0_101_2009
*1482 FILLER_0_101_2015
*1483 FILLER_0_101_2017
*1484 FILLER_0_101_2029
*1485 FILLER_0_101_2041
*1486 FILLER_0_101_205
*1487 FILLER_0_101_2053
*1488 FILLER_0_101_2065
*1489 FILLER_0_101_2071
*1490 FILLER_0_101_2073
*1491 FILLER_0_101_2085
*1492 FILLER_0_101_2097
*1493 FILLER_0_101_2109
*1494 FILLER_0_101_2121
*1495 FILLER_0_101_2127
*1496 FILLER_0_101_2129
*1497 FILLER_0_101_2141
*1498 FILLER_0_101_2153
*1499 FILLER_0_101_2165
*1500 FILLER_0_101_217
*1501 FILLER_0_101_2177
*1502 FILLER_0_101_2183
*1503 FILLER_0_101_2185
*1504 FILLER_0_101_2197
*1505 FILLER_0_101_2209
*1506 FILLER_0_101_2221
*1507 FILLER_0_101_223
*1508 FILLER_0_101_2233
*1509 FILLER_0_101_2239
*1510 FILLER_0_101_2241
*1511 FILLER_0_101_225
*1512 FILLER_0_101_2253
*1513 FILLER_0_101_2265
*1514 FILLER_0_101_2277
*1515 FILLER_0_101_2289
*1516 FILLER_0_101_2295
*1517 FILLER_0_101_2297
*1518 FILLER_0_101_2309
*1519 FILLER_0_101_2321
*1520 FILLER_0_101_2333
*1521 FILLER_0_101_2345
*1522 FILLER_0_101_2351
*1523 FILLER_0_101_2353
*1524 FILLER_0_101_2365
*1525 FILLER_0_101_237
*1526 FILLER_0_101_2377
*1527 FILLER_0_101_2389
*1528 FILLER_0_101_2401
*1529 FILLER_0_101_2407
*1530 FILLER_0_101_2409
*1531 FILLER_0_101_2421
*1532 FILLER_0_101_2433
*1533 FILLER_0_101_2445
*1534 FILLER_0_101_2457
*1535 FILLER_0_101_2463
*1536 FILLER_0_101_2465
*1537 FILLER_0_101_2477
*1538 FILLER_0_101_2489
*1539 FILLER_0_101_249
*1540 FILLER_0_101_2501
*1541 FILLER_0_101_2513
*1542 FILLER_0_101_2519
*1543 FILLER_0_101_2521
*1544 FILLER_0_101_2533
*1545 FILLER_0_101_2545